Circuit: * C:\Projects\Electricity\LTSpice\Thermoster.asc

ERROR: Node N003 is floating and connected to current source G:U1:65:_G5

Direct Newton iteration for .op point succeeded.
Direct Newton iteration failed to find .op point.  (Use ".option noopiter" to skip.)
Starting Gmin stepping
Gmin = 10
Gmin = 1.07374
Gmin = 0.115292
Gmin = 0.0123794
Gmin = 0.00132923
Gmin = 0.000142725
Gmin = 1.5325e-005
Gmin = 1.6455e-006
Gmin = 1.76685e-007
Gmin = 1.89714e-008
Gmin = 2.03704e-009
Gmin = 2.18725e-010
Gmin = 2.34854e-011
Gmin = 2.52173e-012
Gmin = 2.70769e-013
Gmin = 0
Gmin stepping succeeded in finding the operating point.

Direct Newton iteration failed to find .op point.  (Use ".option noopiter" to skip.)
Starting Gmin stepping
Gmin = 10
Gmin = 1.07374
Gmin = 0.115292
Gmin = 0.0123794
Gmin = 0.00132923
Gmin = 0.000142725
Gmin = 1.5325e-005
Gmin = 1.6455e-006
Gmin = 1.76685e-007
Gmin = 1.89714e-008
Gmin = 2.03704e-009
Gmin = 2.18725e-010
Gmin = 2.34854e-011
Gmin = 2.52173e-012
Gmin = 2.70769e-013
Gmin = 0
Gmin stepping failed

Starting source stepping with srcstepmethod=0
Source Step = 3.0303%
Source Step = 33.3333%
Source Step = 63.6364%
Source Step = 86.3636%
Source Step = 91.4773%
vernier = 0.015625
Source Step = 91.4714%
Source Step = 91.5009%
Source Step = 91.5305%
Source Step = 91.5601%
Source Step = 91.5897%
Source Step = 91.6193%
Source Step = 91.6489%
Source Step = 91.6785%
Source Step = 91.7081%
Source Step = 91.7377%
Source Step = 91.7673%
Source Step = 91.7969%
Source Step = 91.8265%
Source Step = 91.8561%
Source Step = 91.8857%
Source Step = 91.9152%
Source Step = 91.9448%
Source Step = 91.9744%
Source Step = 92.004%
Source Step = 92.0336%
Source Step = 92.0632%
Source Step = 92.0928%
Source Step = 92.1224%
Source Step = 92.152%
Source Step = 92.1816%
Source Step = 92.2112%
Source Step = 92.2408%
Source Step = 92.2704%
Source Step = 92.3%
Source Step = 92.3295%
Source Step = 92.3591%
Source Step = 92.3887%
Source Step = 92.4183%
Source Step = 92.4479%
Source Step = 92.4775%
Source Step = 92.5071%
Source Step = 92.5367%
Source Step = 92.5663%
Source Step = 92.5959%
Source Step = 92.6255%
Source Step = 92.6551%
Source Step = 92.6847%
Source Step = 92.7143%
Source Step = 92.7438%
Source Step = 92.7734%
Source Step = 92.803%
Source Step = 92.8326%
Source Step = 92.8622%
Source Step = 92.8918%
Source Step = 92.9214%
Source Step = 92.951%
Source Step = 92.9806%
Source Step = 93.0102%
Source Step = 93.0398%
Source Step = 93.0694%
Source Step = 93.099%
Source Step = 93.1286%
Source Step = 93.1581%
Source Step = 93.1877%
Source Step = 93.2173%
Source Step = 93.2469%
Source Step = 93.2765%
Source Step = 93.3061%
Source Step = 93.3357%
Source Step = 93.3653%
Source Step = 93.3949%
Source Step = 93.4245%
Source Step = 93.4541%
Source Step = 93.4837%
Source Step = 93.5133%
Source Step = 93.5429%
Source Step = 93.5724%
Source Step = 93.602%
Source Step = 93.6316%
Source Step = 93.6612%
Source Step = 93.6908%
Source Step = 93.7204%
Source Step = 93.75%
Source Step = 93.7796%
Source Step = 93.8092%
Source Step = 93.8388%
Source Step = 93.8684%
Source Step = 93.898%
Source Step = 93.9276%
Source Step = 93.9571%
Source Step = 93.9867%
Source Step = 94.0163%
Source Step = 94.0459%
Source Step = 94.0755%
Source Step = 94.1051%
Source Step = 94.1347%
Source Step = 94.1643%
Source Step = 94.1939%
Source Step = 94.2235%
Source Step = 94.2531%
Source Step = 94.2827%
Source Step = 94.3123%
Source Step = 94.3419%
Source Step = 94.3714%
Source Step = 94.401%
Source Step = 94.4306%
Source Step = 94.4602%
Source Step = 94.4898%
Source Step = 94.5194%
Source Step = 94.549%
Source Step = 94.5786%
Source Step = 94.6082%
Source Step = 94.6378%
Source Step = 94.6674%
Source Step = 94.697%
Source Step = 94.7266%
Source Step = 94.7562%
Source Step = 94.7857%
Source Step = 94.8153%
Source Step = 94.8449%
Source Step = 94.8745%
Source Step = 94.9041%
Source Step = 94.9337%
Source Step = 94.9633%
Source Step = 94.9929%
Source Step = 95.0225%
Source Step = 95.0521%
Source Step = 95.0817%
Source Step = 95.1113%
Source Step = 95.1409%
Source Step = 95.1705%
Source Step = 95.2%
Source Step = 95.2296%
Source Step = 95.2592%
Source Step = 95.2888%
Source Step = 95.3184%
Source Step = 95.348%
Source Step = 95.3776%
Source Step = 95.4072%
Source Step = 95.4368%
Source Step = 95.4664%
Source Step = 95.496%
Source Step = 95.5256%
Source Step = 95.5552%
Source Step = 95.5848%
Source Step = 95.6143%
Source Step = 95.6439%
Source Step = 95.6735%
Source Step = 95.7031%
Source Step = 95.7327%
Source Step = 95.7623%
Source Step = 95.7919%
Source Step = 95.8215%
Source Step = 95.8511%
Source Step = 95.8807%
Source Step = 95.9103%
Source Step = 95.9399%
Source Step = 95.9695%
Source Step = 95.9991%
Source Step = 96.0286%
Source Step = 96.0582%
Source Step = 96.0878%
Source Step = 96.1174%
Source Step = 96.147%
Source Step = 96.1766%
Source Step = 96.2062%
Source Step = 96.2358%
Source Step = 96.2654%
Source Step = 96.295%
Source Step = 96.3246%
Source Step = 96.3542%
Source Step = 96.3838%
Source Step = 96.4134%
Source Step = 96.4429%
Source Step = 96.4725%
Source Step = 96.5021%
Source Step = 96.5317%
Source Step = 96.5613%
Source Step = 96.5909%
Source Step = 96.6205%
Source Step = 96.6501%
Source Step = 96.6797%
Source Step = 96.7093%
Source Step = 96.7389%
Source Step = 96.7685%
Source Step = 96.7981%
Source Step = 96.8277%
Source Step = 96.8572%
Source Step = 96.8868%
Source Step = 96.9164%
Source Step = 96.946%
Source Step = 96.9756%
Source Step = 97.0052%
Source Step = 97.0348%
Source Step = 97.0644%
Source Step = 97.094%
Source Step = 97.1236%
Source Step = 97.1532%
Source Step = 97.1828%
Source Step = 97.2124%
Source Step = 97.242%
Source Step = 97.2715%
Source Step = 97.3011%
Source Step = 97.3307%
Source Step = 97.3603%
Source Step = 97.3899%
Source Step = 97.4195%
Source Step = 97.4491%
Source Step = 97.4787%
Source Step = 97.5083%
Source Step = 97.5379%
Source Step = 97.5675%
Source Step = 97.5971%
Source Step = 97.6267%
Source Step = 97.6562%
Source Step = 97.6858%
Source Step = 97.7154%
Source Step = 97.745%
Source Step = 97.7746%
Source Step = 97.8042%
Source Step = 97.8338%
Source Step = 97.8634%
Source Step = 97.893%
Source Step = 97.9226%
Source Step = 97.9522%
Source Step = 97.9818%
Source Step = 98.0114%
Source Step = 98.041%
Source Step = 98.0705%
Source Step = 98.1001%
Source Step = 98.1297%
Source Step = 98.1593%
Source Step = 98.1889%
Source Step = 98.2185%
Source Step = 98.2481%
Source Step = 98.2777%
Source Step = 98.3073%
Source Step = 98.3369%
Source Step = 98.3665%
Source Step = 98.3961%
Source Step = 98.4257%
Source Step = 98.4553%
Source Step = 98.4848%
Source Step = 98.5144%
Source Step = 98.544%
Source Step = 98.5736%
Source Step = 98.6032%
Source Step = 98.6328%
Source Step = 98.6624%
Source Step = 98.692%
Source Step = 98.7216%
Source Step = 98.7512%
Source Step = 98.7808%
Source Step = 98.8104%
Source Step = 98.84%
Source Step = 98.8696%
Source Step = 98.8991%
Source Step = 98.9287%
Source Step = 98.9583%
Source Step = 98.9879%
Source Step = 99.0175%
Source Step = 99.0471%
Source Step = 99.0767%
Source Step = 99.1063%
Source Step = 99.1359%
Source Step = 99.1655%
Source Step = 99.1951%
Source Step = 99.2247%
Source Step = 99.2543%
Source Step = 99.2839%
Source Step = 99.3134%
Source Step = 99.343%
Source Step = 99.3726%
Source Step = 99.4022%
Source Step = 99.4318%
Source Step = 99.4614%
Source Step = 99.491%
Source Step = 99.5206%
Source Step = 99.5502%
Source Step = 99.5798%
Source Step = 99.6094%
Source Step = 99.639%
Source Step = 99.6686%
Source Step = 99.6982%
Source Step = 99.7277%
Source Step = 99.7573%
Source Step = 99.7869%
Source Step = 99.8165%
Source Step = 99.8461%
Source Step = 99.8757%
Source Step = 99.9053%
Source Step = 99.9349%
Source Step = 99.9645%
Source Step = 99.9941%
Source Step = 100%
Starting source stepping with srcstepmethod=1
Source Step = 3.0303%
Source Step = 33.3333%
Source Step = 63.6364%
Source Step = 86.3636%
Source Step = 91.4773%
vernier = 0.015625
Source Step = 91.4654%
Source Step = 91.4921%
Source Step = 91.5217%
Source Step = 91.5513%
Source Step = 91.5808%
Source Step = 91.6104%
Source Step = 91.64%
Source Step = 91.6696%
Source Step = 91.6992%
Source Step = 91.7288%
Source Step = 91.7584%
Source Step = 91.788%
Source Step = 91.8176%
Source Step = 91.8472%
Source Step = 91.8768%
Source Step = 91.9064%
Source Step = 91.936%
Source Step = 91.9656%
Source Step = 91.9951%
Source Step = 92.0247%
Source Step = 92.0543%
Source Step = 92.0839%
Source Step = 92.1135%
Source Step = 92.1431%
Source Step = 92.1727%
Source Step = 92.2023%
Source Step = 92.2319%
Source Step = 92.2615%
Source Step = 92.2911%
Source Step = 92.3207%
Source Step = 92.3503%
Source Step = 92.3799%
Source Step = 92.4094%
Source Step = 92.439%
Source Step = 92.4686%
Source Step = 92.4982%
Source Step = 92.5278%
Source Step = 92.5574%
Source Step = 92.587%
Source Step = 92.6166%
Source Step = 92.6462%
Source Step = 92.6758%
Source Step = 92.7054%
Source Step = 92.735%
Source Step = 92.7646%
Source Step = 92.7942%
Source Step = 92.8237%
Source Step = 92.8533%
Source Step = 92.8829%
Source Step = 92.9125%
Source Step = 92.9421%
Source Step = 92.9717%
Source Step = 93.0013%
Source Step = 93.0309%
Source Step = 93.0605%
Source Step = 93.0901%
Source Step = 93.1197%
Source Step = 93.1493%
Source Step = 93.1789%
Source Step = 93.2085%
Source Step = 93.238%
Source Step = 93.2676%
Source Step = 93.2972%
Source Step = 93.3268%
Source Step = 93.3564%
Source Step = 93.386%
Source Step = 93.4156%
Source Step = 93.4452%
Source Step = 93.4748%
Source Step = 93.5044%
Source Step = 93.534%
Source Step = 93.5636%
Source Step = 93.5932%
Source Step = 93.6228%
Source Step = 93.6523%
Source Step = 93.6819%
Source Step = 93.7115%
Source Step = 93.7411%
Source Step = 93.7707%
Source Step = 93.8003%
Source Step = 93.8299%
Source Step = 93.8595%
Source Step = 93.8891%
Source Step = 93.9187%
Source Step = 93.9483%
Source Step = 93.9779%
Source Step = 94.0075%
Source Step = 94.0371%
Source Step = 94.0666%
Source Step = 94.0962%
Source Step = 94.1258%
Source Step = 94.1554%
Source Step = 94.185%
Source Step = 94.2146%
Source Step = 94.2442%
Source Step = 94.2738%
Source Step = 94.3034%
Source Step = 94.333%
Source Step = 94.3626%
Source Step = 94.3922%
Source Step = 94.4218%
Source Step = 94.4513%
Source Step = 94.4809%
Source Step = 94.5105%
Source Step = 94.5401%
Source Step = 94.5697%
Source Step = 94.5993%
Source Step = 94.6289%
Source Step = 94.6585%
Source Step = 94.6881%
Source Step = 94.7177%
Source Step = 94.7473%
Source Step = 94.7769%
Source Step = 94.8065%
Source Step = 94.8361%
Source Step = 94.8656%
Source Step = 94.8952%
Source Step = 94.9248%
Source Step = 94.9544%
Source Step = 94.984%
Source Step = 95.0136%
Source Step = 95.0432%
Source Step = 95.0728%
Source Step = 95.1024%
Source Step = 95.132%
Source Step = 95.1616%
Source Step = 95.1912%
Source Step = 95.2208%
Source Step = 95.2504%
Source Step = 95.2799%
Source Step = 95.3095%
Source Step = 95.3391%
Source Step = 95.3687%
Source Step = 95.3983%
Source Step = 95.4279%
Source Step = 95.4575%
Source Step = 95.4871%
Source Step = 95.5167%
Source Step = 95.5463%
Source Step = 95.5759%
Source Step = 95.6055%
Source Step = 95.6351%
Source Step = 95.6647%
Source Step = 95.6942%
Source Step = 95.7238%
Source Step = 95.7534%
Source Step = 95.783%
Source Step = 95.8126%
Source Step = 95.8422%
Source Step = 95.8718%
Source Step = 95.9014%
Source Step = 95.931%
Source Step = 95.9606%
Source Step = 95.9902%
Source Step = 96.0198%
Source Step = 96.0494%
Source Step = 96.079%
Source Step = 96.1085%
Source Step = 96.1381%
Source Step = 96.1677%
Source Step = 96.1973%
Source Step = 96.2269%
Source Step = 96.2565%
Source Step = 96.2861%
Source Step = 96.3157%
Source Step = 96.3453%
Source Step = 96.3749%
Source Step = 96.4045%
Source Step = 96.4341%
Source Step = 96.4637%
Source Step = 96.4933%
Source Step = 96.5228%
Source Step = 96.5524%
Source Step = 96.582%
Source Step = 96.6116%
Source Step = 96.6412%
Source Step = 96.6708%
Source Step = 96.7004%
Source Step = 96.73%
Source Step = 96.7596%
Source Step = 96.7892%
Source Step = 96.8188%
Source Step = 96.8484%
Source Step = 96.878%
Source Step = 96.9076%
Source Step = 96.9371%
Source Step = 96.9667%
Source Step = 96.9963%
Source Step = 97.0259%
Source Step = 97.0555%
Source Step = 97.0851%
Source Step = 97.1147%
Source Step = 97.1443%
Source Step = 97.1739%
Source Step = 97.2035%
Source Step = 97.2331%
Source Step = 97.2627%
Source Step = 97.2923%
Source Step = 97.3219%
Source Step = 97.3514%
Source Step = 97.381%
Source Step = 97.4106%
Source Step = 97.4402%
Source Step = 97.4698%
Source Step = 97.4994%
Source Step = 97.529%
Source Step = 97.5586%
Source Step = 97.5882%
Source Step = 97.6178%
Source Step = 97.6474%
Source Step = 97.677%
Source Step = 97.7066%
Source Step = 97.7362%
Source Step = 97.7657%
Source Step = 97.7953%
Source Step = 97.8249%
Source Step = 97.8545%
Source Step = 97.8841%
Source Step = 97.9137%
Source Step = 97.9433%
Source Step = 97.9729%
Source Step = 98.0025%
Source Step = 98.0321%
Source Step = 98.0617%
Source Step = 98.0913%
Source Step = 98.1209%
Source Step = 98.1504%
Source Step = 98.18%
Source Step = 98.2096%
Source Step = 98.2392%
Source Step = 98.2688%
Source Step = 98.2984%
Source Step = 98.328%
Source Step = 98.3576%
Source Step = 98.3872%
Source Step = 98.4168%
Source Step = 98.4464%
Source Step = 98.476%
Source Step = 98.5056%
Source Step = 98.5352%
Source Step = 98.5647%
Source Step = 98.5943%
Source Step = 98.6239%
Source Step = 98.6535%
Source Step = 98.6831%
Source Step = 98.7127%
Source Step = 98.7423%
Source Step = 98.7719%
Source Step = 98.8015%
Source Step = 98.8311%
Source Step = 98.8607%
Source Step = 98.8903%
Source Step = 98.9199%
Source Step = 98.9495%
Source Step = 98.979%
Source Step = 99.0086%
Source Step = 99.0382%
Source Step = 99.0678%
Source Step = 99.0974%
Source Step = 99.127%
Source Step = 99.1566%
Source Step = 99.1862%
Source Step = 99.2158%
Source Step = 99.2454%
Source Step = 99.275%
Source Step = 99.3046%
Source Step = 99.3342%
Source Step = 99.3638%
Source Step = 99.3933%
Source Step = 99.4229%
Source Step = 99.4525%
Source Step = 99.4821%
Source Step = 99.5117%
Source Step = 99.5413%
Source Step = 99.5709%
Source Step = 99.6005%
Source Step = 99.6301%
Source Step = 99.6597%
Source Step = 99.6893%
Source Step = 99.7189%
Source Step = 99.7485%
Source Step = 99.7781%
Source Step = 99.8076%
Source Step = 99.8372%
Source Step = 99.8668%
Source Step = 99.8964%
Source Step = 99.926%
Source Step = 99.9556%
Source Step = 99.9852%
Source Step = 100%
Source Step = 100%
Source stepping failed

Pseudo transient terminated at 106.769 s, solution accepted ready or not!
Direct Newton iteration failed to find .op point.  (Use ".option noopiter" to skip.)
Starting Gmin stepping
Gmin = 10
Gmin = 1.07374
Gmin = 0.115292
Gmin = 0.0123794
Gmin = 0.00132923
Gmin = 0.000142725
Gmin = 1.5325e-005
Gmin = 1.6455e-006
Gmin = 1.76685e-007
Gmin = 1.89714e-008
Gmin = 2.03704e-009
Gmin = 2.18725e-010
Gmin = 2.34854e-011
Gmin = 2.52173e-012
Gmin = 2.70769e-013
Gmin = 0
Gmin stepping succeeded in finding the operating point.

Direct Newton iteration failed to find .op point.  (Use ".option noopiter" to skip.)
Starting Gmin stepping
Gmin = 10
Gmin = 1.07374
Gmin = 0.115292
Gmin = 0.0123794
Gmin = 0.00132923
Gmin = 0.000142725
Gmin = 1.5325e-005
Gmin = 1.6455e-006
Gmin = 1.76685e-007
Gmin = 1.89714e-008
Gmin = 2.03704e-009
Gmin = 2.18725e-010
Gmin = 2.34854e-011
Gmin = 2.52173e-012
Gmin = 2.70769e-013
Terminal Gmin changed to 1e-014
Gmin = 4.54274e-014
Gmin = 0
Gmin stepping succeeded in finding the operating point.

Direct Newton iteration failed to find .op point.  (Use ".option noopiter" to skip.)
Starting Gmin stepping
Gmin = 10
Gmin = 1.07374
Gmin = 0.115292
Gmin = 0.0123794
Gmin = 0.00132923
Gmin = 0.000142725
Gmin = 1.5325e-005
Gmin = 1.6455e-006
Gmin = 1.76685e-007
Gmin = 1.89714e-008
Gmin = 2.03704e-009
Gmin = 2.18725e-010
Gmin = 2.34854e-011
Gmin = 2.52173e-012
Gmin = 2.70769e-013
Terminal Gmin changed to 1e-014
Gmin = 4.54274e-014
Gmin = 0
Gmin stepping failed

Starting source stepping with srcstepmethod=0
Source Step = 3.0303%
Source Step = 33.3333%
Source Step = 63.6364%
Source Step = 72.5379%
Source Step = 74.4318%
Source Step = 75.9943%
vernier = 0.00390625
Source Step = 75.9914%
Source Step = 76.021%
Source Step = 76.0505%
Source Step = 76.0801%
Source Step = 76.1097%
Starting source stepping with srcstepmethod=1
Source Step = 3.0303%
Source Step = 33.3333%
Source Step = 63.6364%
Source Step = 72.5379%
Source Step = 74.4318%
Source Step = 75.9943%
Source Step = 76.4678%
Source Step = 76.9413%
Source Step = 77.0833%
Source stepping failed

Pseudo Transient succeeded in finding the operating point at 86.3989 s.
Direct Newton iteration failed to find .op point.  (Use ".option noopiter" to skip.)
Starting Gmin stepping
Gmin = 10
Gmin = 1.07374
Gmin = 0.115292
Gmin = 0.0123794
Gmin = 0.00132923
Gmin = 0.000142725
Gmin = 1.5325e-005
Gmin = 1.6455e-006
Gmin = 1.76685e-007
Gmin = 1.89714e-008
Gmin = 2.03704e-009
Gmin = 2.18725e-010
Gmin = 2.34854e-011
Gmin = 2.52173e-012
Gmin = 2.70769e-013
Gmin = 0
Gmin stepping succeeded in finding the operating point.


Date: Tue Mar 12 18:56:52 2019
Total elapsed time: 7.711 seconds.

tnom = 27
temp = 151
method = trap
totiter = 401391
traniter = 0
tranpoints = 0
accept = 0
rejected = 23
matrix size = 8
fillins = 5
solver = Normal
Matrix Compiler1: 512 bytes object code size  0.1/0.1/[0.1]
Matrix Compiler2: 682 bytes object code size  0.1/0.0/[0.0]

